/*--------------------------------*- C++ -*----------------------------------*\
  =========                 |
  \\      /  F ield         | OpenFOAM: The Open Source CFD Toolbox
   \\    /   O peration     | Website:  https://openfoam.org
    \\  /    A nd           | Version:  7
     \\/     M anipulation  |
\*---------------------------------------------------------------------------*/
FoamFile
{
    version     2.0;
    format      ascii;
    class       polyBoundaryMesh;
    location    "constant/polyMesh";
    object      boundary;
}
// * * * * * * * * * * * * * * * * * * * * * * * * * * * * * * * * * * * * * //

4
(
    inner_wall
    {
        type            wall;
        inGroups        List<word> 1(wall);
        nFaces          38400;
        startFace       881664;
    }
    outer_wall
    {
        type            wall;
        inGroups        List<word> 1(wall);
        nFaces          38400;
        startFace       920064;
    }
    bottom
    {
        type            patch;
        nFaces          1536;
        startFace       958464;
    }
    top
    {
        type            patch;
        nFaces          1536;
        startFace       960000;
    }
)

// ************************************************************************* //
